#######################################################################
#
# CIF file for B2BeC2H3 (ambient-pressure superconductor candidate)
# Generated by RT-Superconductor Discovery Pipeline
# Category: Li-B-C-N
# Expected self-compression: >200 GPa
#
#######################################################################

data_B2BeC2H3

_chemical_name_common                  'B2BeC2H3'
_chemical_formula_sum                  'B2BeC2H3'
_chemical_formula_weight               57.67

_space_group_name_H-M_alt              'P6/mmm'
_space_group_IT_number                 1

_cell_length_a                         2.313602
_cell_length_b                         2.313602
_cell_length_c                         3.778112
_cell_angle_alpha                      90.00
_cell_angle_beta                       90.00
_cell_angle_gamma                      120.00
_cell_volume                           17.51

loop_
_atom_site_label
_atom_site_type_symbol
_atom_site_fract_x
_atom_site_fract_y
_atom_site_fract_z
_atom_site_occupancy
B1       B   0.53300  0.66700  0.00000  1.000
B2       B   0.13300  0.66700  0.00000  1.000
Be3      Be  0.53300  0.66700  0.50000  1.000
C4       C   0.53300  0.66700  0.00000  1.000
C5       C   0.13300  0.66700  0.00000  1.000
H6       H   0.53300  0.66700  0.50000  1.000
H7       H   0.23300  0.84021  0.50000  1.000
H8       H   0.23300  0.49379  0.50000  1.000
