#######################################################################
#
# CIF file for B3BeC3H4 (ambient-pressure superconductor candidate)
# Generated by RT-Superconductor Discovery Pipeline
# Category: Li-B-C-N
# Expected self-compression: >200 GPa
#
#######################################################################

data_B3BeC3H4

_chemical_name_common                  'B3BeC3H4'
_chemical_formula_sum                  'B3BeC3H4'
_chemical_formula_weight               81.50

_space_group_name_H-M_alt              'P6/mmm'
_space_group_IT_number                 1

_cell_length_a                         2.522645
_cell_length_b                         2.522645
_cell_length_c                         4.119479
_cell_angle_alpha                      90.00
_cell_angle_beta                       90.00
_cell_angle_gamma                      120.00
_cell_volume                           22.70

loop_
_atom_site_label
_atom_site_type_symbol
_atom_site_fract_x
_atom_site_fract_y
_atom_site_fract_z
_atom_site_occupancy
B1       B   0.53300  0.66700  0.00000  1.000
B2       B   0.23300  0.84021  0.00000  1.000
B3       B   0.23300  0.49379  0.00000  1.000
Be4      Be  0.53300  0.66700  0.50000  1.000
C5       C   0.53300  0.66700  0.00000  1.000
C6       C   0.23300  0.84021  0.00000  1.000
C7       C   0.23300  0.49379  0.00000  1.000
H8       H   0.53300  0.66700  0.50000  1.000
H9       H   0.33300  0.86700  0.50000  1.000
H10      H   0.13300  0.66700  0.50000  1.000
H11      H   0.33300  0.46700  0.50000  1.000
