#######################################################################
#
# CIF file for BBeC3H3 (ambient-pressure superconductor candidate)
# Generated by RT-Superconductor Discovery Pipeline
# Category: Li-B-C-N
# Expected self-compression: >200 GPa
#
#######################################################################

data_BBeC3H3

_chemical_name_common                  'BBeC3H3'
_chemical_formula_sum                  'BBeC3H3'
_chemical_formula_weight               58.87

_space_group_name_H-M_alt              'P6/mmm'
_space_group_IT_number                 1

_cell_length_a                         2.292947
_cell_length_b                         2.292947
_cell_length_c                         3.744382
_cell_angle_alpha                      90.00
_cell_angle_beta                       90.00
_cell_angle_gamma                      120.00
_cell_volume                           17.05

loop_
_atom_site_label
_atom_site_type_symbol
_atom_site_fract_x
_atom_site_fract_y
_atom_site_fract_z
_atom_site_occupancy
B1       B   0.53300  0.66700  0.00000  1.000
Be2      Be  0.53300  0.66700  0.50000  1.000
C3       C   0.53300  0.66700  0.00000  1.000
C4       C   0.23300  0.84021  0.00000  1.000
C5       C   0.23300  0.49379  0.00000  1.000
H6       H   0.53300  0.66700  0.50000  1.000
H7       H   0.23300  0.84021  0.50000  1.000
H8       H   0.23300  0.49379  0.50000  1.000
