#######################################################################
#
# CIF file for BeC3H4 (ambient-pressure superconductor candidate)
# Generated by RT-Superconductor Discovery Pipeline
# Category: Hydride
# Expected self-compression: >200 GPa
#
#######################################################################

data_BeC3H4

_chemical_name_common                  'BeC3H4'
_chemical_formula_sum                  'BeC3H4'
_chemical_formula_weight               49.07

_space_group_name_H-M_alt              'Fm-3m'
_space_group_IT_number                 1

_cell_length_a                         2.563807
_cell_length_b                         2.563807
_cell_length_c                         2.563807
_cell_angle_alpha                      90.00
_cell_angle_beta                       90.00
_cell_angle_gamma                      90.00
_cell_volume                           16.85

loop_
_atom_site_label
_atom_site_type_symbol
_atom_site_fract_x
_atom_site_fract_y
_atom_site_fract_z
_atom_site_occupancy
Be1      Be  0.00000  0.00000  0.00000  1.000
C2       C   0.25000  0.25000  0.25000  1.000
C3       C   0.41667  0.25000  0.25000  1.000
C4       C   0.58333  0.25000  0.25000  1.000
H5       H   0.25000  0.25000  0.25000  1.000
H6       H   0.37500  0.25000  0.25000  1.000
H7       H   0.50000  0.25000  0.25000  1.000
H8       H   0.62500  0.25000  0.25000  1.000
