#######################################################################
#
# CIF file for BeC4H3 (ambient-pressure superconductor candidate)
# Generated by RT-Superconductor Discovery Pipeline
# Category: Li-B-C-N
# Expected self-compression: >200 GPa
#
#######################################################################

data_BeC4H3

_chemical_name_common                  'BeC4H3'
_chemical_formula_sum                  'BeC4H3'
_chemical_formula_weight               60.07

_space_group_name_H-M_alt              'P6/mmm'
_space_group_IT_number                 1

_cell_length_a                         2.271913
_cell_length_b                         2.271913
_cell_length_c                         3.710034
_cell_angle_alpha                      90.00
_cell_angle_beta                       90.00
_cell_angle_gamma                      120.00
_cell_volume                           16.58

loop_
_atom_site_label
_atom_site_type_symbol
_atom_site_fract_x
_atom_site_fract_y
_atom_site_fract_z
_atom_site_occupancy
Be1      Be  0.53300  0.66700  0.50000  1.000
C2       C   0.53300  0.66700  0.00000  1.000
C3       C   0.33300  0.86700  0.00000  1.000
C4       C   0.13300  0.66700  0.00000  1.000
C5       C   0.33300  0.46700  0.00000  1.000
H6       H   0.53300  0.66700  0.50000  1.000
H7       H   0.23300  0.84021  0.50000  1.000
H8       H   0.23300  0.49379  0.50000  1.000
